//
simulator lang=spectre insensitive=yes
library tsmclib
//   **********************************************
//   *  TSMC SPICE MODEL --- Security B           *
//   **********************************************
// 
//   PROCESS : TSMC 0.18um Mixed Signal SALICIDE (1.8V/5V) GPII-A
//   MODEL   : BSIM 4.5
//   DOC. NO.: T-018-CM-SP-012
//   VERSION : V1.4
//   DATE    : 03:36PM, Jan. 07, 2011
//     SPECTRE VERSION : 7.1.0.048 
//   
// *******************************************************************************
// *******************************************************************************
// Updated History
//    Date     Version
// 1. 06/26/09 V1.0    Original
//                     Align 1.8V SVT/MVT/Native MOS models to T-018-CM-SP-010 
//  V1.3
//                     Create 5V SVT, and 5V Native MOS models including mismatch 
//  and statistical models
//                     Align 1.8V BJT model to T-018-CM-SP-010 V1.3
//                     Create 5V BJT model including mismatch and statistical 
//  models
//                     Align 1.8V SVT/MVT/DNW diode models to T-018-CM-SP-010 
//  V1.3
//                     Create 5V SVT diode & 5V PWDNW diode model
//                     Align 1.8V NMOSCAP model to T018-CM-SP-010 V1.3
//                     Create 5V NMOSCAP model including mismatch and statistical 
//  models
//                     Create 2T & 3T resistor model including mismatch and statistical 
//  models
//                     Align 1.0fF/um2 & 2.0fF/um2 MIM capacitance models to T-018-CM-SP-010 
//  V1.3
//                     Align RTMOM capacitance model to T-018-CM-SP-010 V1.3
// 2. 01/04/10 V1.1    Update 5V SVT NMOS model
//                     Create 5V MVT MOS model including mismatch and statistical 
//  models
//                     Add 1.8V, 5V MOS full terminal device models
//                     Add the ¡§multi¡¨ & ¡§mismatchflag¡¨ instance parameters 
//  to BJT model
//                     Update the 5V BJT model name w/i ¡§rpo¡¨ wording
//                     Create 5V MVT diode model
//                     Create Schottky Barrier Diode model
//                     Create 3K HRI 2T & 3T resistor model
//                     Update the 3T resistor model equation with the instance 
//  parameter ¡§factor¡¨ in the diode part
//                     Add the ¡§factor¡¨ instance parameter to 1.8V NMOSCAP model
//                     Add the ¡§mismatchflag¡¨ instance parameter to 5V NMOSCAP 
//  mismatch model
//                     Add the ¡§factor¡¨ instance parameter to MIM model
//                     Add the ¡§factor¡¨ instance parameter to RTMOM model
//                     Create FMOM model
//                     Create the usage file
// 3. 06/07/10 V1.2    Create pure5V RPO & N-Well  2T & 3T resistor model including 
//  mismatch and statistical models
//                     Update N-Well 2T & 3T resistor model including mismatch 
//  and statistical models
//                     Create Silicide 2T & 3T resistor statistical models
//                     Further enhance 5V PMOS at W/L = 10/0.5 and 1.2/0.5 model 
//  tempature coefficient
//                     Update diode parameters in 1.8V MOS model for alignment 
//  with diode model
// 4. 08/16/10 V1.3    Update 1K HRI resistor baseband model including statistical 
//  model to smaller size
//                     Enhance pure5v rpo and rppolyrpo resistor model for better 
//  convergence.( It has very minor impact to simulation and is very close to V1.2)
//                     Update the 1.0fF MIM voltage range to 17.6V in the description 
//  and plot (document only, and model card no change)
//                     Update 5V NMOSCAP mismatch model
// 5. 12/30/10 V1.4    Update 5V SVT MOS model including mismatch, statistical, 
//  and LOD/WPE models
//                     Update tempature range to 150C for 1.8V SVT and 1.8V 
//  Native MOS models
//                     MOS models are with tempature range to 150C except for 
//  1.8V MVT MOS model
//                     Update 1.8V PNP BJT model
//                     Update tempature range to 150C for 5V PNP 5x5 and 5V 
//  NPN 2x2 models
//                     Align 5V BJT AC parameters to 5V SVT diodes
//                     All BJT models are with tempature range to 150C
//                     Update 5V SVT diode and 5V PW/DNW diode models
//                     Diode models are with tempature range to 150C except 
//  for 1.8V N-Well/Psub, 1.8V MVT N+/P-Well, and 1.8V MVT P+/N-Well diode models
//                     Update tempature range to 150C for 3K HRI 2T & 3T resistor 
//  models
//                     Align 20K Al and 40K Al metal resistor models to T-018-MM-SP-001 
//  V1.5
//                     Align 33K Cu, and RDL (30K Al) metal resistor models to 
//  T-018-CM-SP-015 V1.1
//                     Resistor models are with tempature range to 150C except 
//  for 20K Al/40K Al/33K Cu, and RDL (30K Al) metal resistor models
//                     2T & 3T 1.0fF MIM models are with tempature range to 
//  150C; 2T & 3T 2.0fF MIM models are with tempature range to 125C
//                     5V NMOSCAP model is with tempature range to 150C; 1.8V 
//  NMOSCAP model is with tempature range to 125C
//                     FMOM and RTMOM models are with tempature range to 125C 
//    
// *******************************************************************************
// *****************************************************************************
//                                                                            
//   *
//        IN THIS MODEL LIB CONTAINS :                                        
//   *
//        1.LIB stat                                                          
//   *
//    ( Common statistical library )                                          
//   *
//                                                                            
//   *
//        2.LIB MC                                                            
//   *
//    ( 1.8V Std-Vt statistical models with different device geometries)      
//   *
//                                                                            
//   *
//        3.LIB MC_5                                                          
//   *
//    ( 5V Med-Vt statistical models with different device geometries)        
//   *
//                                                                            
//   *
//        4.LIB MC_M                                                          
//   *
//    ( 1.8V Med-Vt statistical models with different device geometries)      
//   *
//                                                                            
//   *
//        5.LIB MC_5M                                                         
//   *
//    ( 5V Med-Vt statistical models with different device geometries)        
//   *
//                                                                            
//   *
//        6.LIB MC_na                                                         
//   *
//    ( 1.8V Native device statistical models with different device           
//   *
//      geometries)                                                           
//   *
//                                                                            
//   *
//        7.LIB MC_5VNA                                                       
//   *
//    ( 5V Native device statistical models with different device             
//   *
//      geometries)                                                           
//   *
//                                                                            
//   *
//        8.LIB TT                                                            
//   *
//              SS                                                            
//   *
//              FF                                                            
//   *
//              SF                                                            
//   *
//              FS                                                            
//   *
//          Model name    length range         width range     unit           
//   *
//                        low     high         low    high                    
//   *
//           ----------------------------------------------------------       
//   *
//             nch        0.18   20.0           0.22    900      um           
//   *
//           ----------------------------------------------------------       
//   *
//             pch        0.18   20.0           0.22    900      um           
//   *
//           ----------------------------------------------------------       
//   *
//         ( 1.8V Normal devices with different geometric and corner models)  
//   *
//                                                                            
//   *
//        9.LIB TT_5                                                          
//   *
//              SS_5                                                          
//   *
//              FF_5                                                          
//   *
//              SF_5                                                          
//   *
//              FS_5                                                          
//   *
//          Model name    length range         width range     unit           
//   *
//                        low     high         low    high                    
//   *
//           ----------------------------------------------------------       
//   *
//             nch_5       0.6   900.0           0.22    900      um          
//   *
//             pch_5       0.5   900.0           0.22    900      um          
//   *
//           ----------------------------------------------------------       
//   *
//         ( 5V normal devices with different geometric and corner models)    
//   *
//                                                                            
//   *
//       10.LIB TT_M                                                          
//   *
//              SS_M                                                          
//   *
//              FF_M                                                          
//   *
//              SF_M                                                          
//   *
//              FS_M                                                          
//   *
//          Model name    length range         width range     unit           
//   *
//                        low     high         low    high                    
//   *
//           ----------------------------------------------------------       
//   *
//             mench      0.30  20.0           0.22    900      um            
//   *
//             mepch      0.25  20.0           0.22    900      um            
//   *
//           ----------------------------------------------------------       
//   *
//         ( 1.8V Medium Vt devices with different geometric and corner models)*
//                                                                            
//   *
//       11.LIB TT_5M                                                         
//   *
//              SS_5M                                                         
//   *
//              FF_5M                                                         
//   *
//              SF_5M                                                         
//   *
//              FS_5M                                                         
//   *
//          Model name    length range         width range     unit           
//   *
//                        low     high         low    high                    
//   *
//           ----------------------------------------------------------       
//   *
//             mench5     0.8  900.0           0.22    900      um            
//   *
//             mepch5     0.8  900.0           0.22    900      um            
//   *
//           ----------------------------------------------------------       
//   *
//         ( 5V Medium Vt devices with different geometric and corner models) 
//   *
//                                                                            
//   *
//       12.LIB TT_na                                                         
//   *
//              SS_na                                                         
//   *
//              FF_na                                                         
//   *
//              SF_na                                                         
//   *
//              FS_na                                                         
//   *
//          Model name    length range         width range     unit           
//   *
//                        low     high         low    high                    
//   *
//           ----------------------------------------------------------       
//   *
//             nanch      0.5   20.0           0.22    900      um            
//   *
//           ----------------------------------------------------------       
//   *
//         ( 1.8V native NMOS with different geometric and corner models)     
//   *
//                                                                            
//   *
//       13.LIB TT_5VNA                                                       
//   *
//              SS_5VNA                                                       
//   *
//              FF_5VNA                                                       
//   *
//              SF_5VNA                                                       
//   *
//              FS_5VNA                                                       
//   *
//              MC_5VNA                                                       
//   *
//                                                                            
//   *
//          Model name    length range         width range     unit           
//   *
//                        low     high         low    high                    
//   *
//           ----------------------------------------------------------       
//   *
//             nanch5     1.6     900          1.2     900      um            
//   *
//           ----------------------------------------------------------       
//   *
//        (5V Native NMOS devices with different geometric and corner models) 
//   *
//                                                                            
//   *
//        14.LIB TT_BIP                                                       
//   *
//               SS_BIP                                                       
//   *
//               FF_BIP                                                       
//   *
//             Model name      emitter area      base area         unit       
//   *
//           ------------------------------------------------------------     
//   *
//               pnp10            10x10            16x16           um^2       
//   *
//               pnp5              5x5             11x11           um^2       
//   *
//               pnp2              2x2              8x8            um^2       
//   *
//               npn10            10x10            16x16           um^2       
//   *
//               npn5              5x5             11x11           um^2       
//   *
//               npn2              2x2              8x8            um^2       
//   *
//           ------------------------------------------------------------     
//   *
//         ( 1.8V P+/NW/PSUB 10x10, 5x5 and 2x2 vertical PNP bipolar and      
//   *
//                N+/PW/DNW  10x10, 5x5  and 2x2 vertical NPN bipolar )       
//   *
//                                                                            
//   *
//        15.LIB MC_BIP                                                       
//   *
//         ( 1.8V P+/NW/PSUB 10x10, 5x5 and 2x2 vertical PNP bipolar and      
//   *
//                N+/PW/DNW  10x10, 5x5  and 2x2 vertical NPN bipolar         
//   *
// 		statistical model)                                           *
//                                                                            
//   *
//        16.LIB TT_BIP5_RPO                                                  
//   *
//               SS_BIP5_RPO                                                  
//   *
//               FF_BIP5_RPO                                                  
//   *
//             Model name      emitter area      base area         unit       
//   *
//           ------------------------------------------------------------     
//   *
//               pnp10_5_rpo      10x10            16x16           um^2       
//   *
//               pnp5_5_rpo        5x5             11x11           um^2       
//   *
//               pnp2_5_rpo        2x2              8x8            um^2       
//   *
//               npn10_5_rpo      10x10            16x16           um^2       
//   *
//               npn5_5_rpo        5x5             11x11           um^2       
//   *
//               npn2_5_rpo        2x2              8x8            um^2       
//   *
//           ------------------------------------------------------------     
//   *
//         (  5V  P+/NW/PSUB 10x10, 5x5 and 2x2 vertical PNP bipolar and      
//   *
//                N+/PW/DNW  10x10, 5x5  and 2x2 vertical NPN bipolar         
//   *
//                with RPO protection around emitter edge )                   
//   *
//                                                                            
//   *
//        17.LIB MC_BIP5_RPO                                                  
//   *
//         (   5V P+/NW/PSUB 10x10, 5x5 and 2x2 vertical PNP bipolar and      
//   *
//                N+/PW/DNW  10x10, 5x5  and 2x2 vertical NPN bipolar         
//   *
// 		with RPO protection around emitter edge statistical model)   *
//                                                                            
//   *
//       18.LIB DIO                                                           
//   *
//         ( 1.8V P+/NW , N+/PW & NW/PSUB diode )                             
//   *
//                                                                            
//   *
//       19.LIB DIO_5                                                         
//   *
//         ( 5  V P+/NW ,  N+/PW  & NW/PSUB diode )                           
//   *
//                                                                            
//   *
//       20.LIB DIO_M                                                         
//   *
//         ( 1.8V Medium Vt P+/NW , N+/PW & NW/PSUB diode )                   
//   *
//                                                                            
//   *
//       21.LIB DIO_5M                                                        
//   *
//         ( 5V Medium Vt P+/NW , N+/PW & NW/PSUB diode )                     
//   *
//                                                                            
//   *
//       22.LIB DIO_DNW                                                       
//   *
//         ( DNW/PSUB ,1.8V  PW/DNW diode )                                   
//   *
//                                                                            
//   *
//       23.LIB DIO_DNW_5                                                     
//   *
//         ( 5V PW/DNW diode )                                                
//   *
//                                                                            
//   *
//       24.LIB RES                                                           
//   *
//          (2T resist model)                                                 
//   *
//  Model name      structure                                                 
//   *
//  -----------------------------------------                                 
//   *
//   rnod         	N+diff w/i silicide W>2um                            *
//   rnodw        	N+diff w/i silicide 0.22um<W<2um                     *
//   rpod         	P+diff w/i silicide W>2um                            *
//   rpodw        	P+diff w/i silicide 0.22um<W<2um                     *
//   rnodrpo      	N+diff w/o silicide 2um<=W                           *
//   rpodrpo      	P+diff w/o silicide 2um<=W                           *
//   rnwod        	NW diff(under OD)                                    *
//   rnwsti       	NW diff(under STI)                                   *
//   rnpo1        	N+Poly w/i silicide W>2um                            *
//   rnpo1w       	N+Poly w/i silicide 0.18um<W<2um                     *
//   rppo1        	P+Poly w/i silicide W>2um                            *
//   rppo1w       	P+Poly w/i silicide 0.18um<W<2um                     *
//   rnpo1rpo     	N+Poly w/o silicide 2um<W                            *
//   rppo1rpo     	P+Poly w/o silicide 2um<W                            *
//   rm1          	Metal 1 with W/S=0.23/0.23                           *
//   rm2~5        	Metal 2 to 5 with W/S=0.28/0.28                      *
//   rm6          	Metal 6 with W/S=0.44/0.46                           *
//   rppolyhri    	P-Poly w/o silicide 0.18um <=W                       *
//   rnodrpo_pure5v      	N+diff w/o silicide 2um<=W  (for pure5v device)     
//   *
//   rpodrpo_pure5v      	P+diff w/o silicide 2um<=W  (for pure5v device)     
//   *
//   rnpo1rpo_pure5v     	N+Poly w/o silicide 2um<W   (for pure5v device)     
//   *
//   rppo1rpo_pure5v     	P+Poly w/o silicide 2um<W   (for pure5v device)     
//   *
//   rnwod_pure5v        	NW diff(under OD)           (for pure5v device)     
//   *
//   rnwsti_pure5v       	NW diff(under STI)          (for pure5v device)     
//   *
//                                                                            
//   *
//       25.LIB DISRES                                                        
//   *
//          (3T resist model)                                                 
//   *
//                                                                            
//   *
//       26.LIB  MC_BBMVAR                                                    
//   *
//    ( 1.8V /5V Standard-Vt NMOS in N-Well varactor statistical model)       
//   *
//                                                                            
//   *
//       27.LIB  TT_BBMVAR                                                    
//   *
//               SS_BBMVAR                                                    
//   *
//               FF_BBMVAR                                                    
//   *
//     ( 1.8V /5V Standard-Vt NMOS in N-Well varactor )                       
//   *
//                                                                            
//   *
//       28.LIB MIM                                                           
//   *
//         ( MiM Capacitance model )                                          
//   *
//                                                                            
//   *
//       29.LIB RTMOM                                                         
//   *
//         ( RTMOM Capacitance model )                                        
//   *
//                                                                            
//   *
//       30.LIB FTMOM                                                         
//   *
//         ( RTMOM Capacitance model )                                        
//   *
//                                                                            
//   *
//       31.LIB DIO_SBD_MAC                                                   
//   *
//         ( Schottky Barrier Diode model )                                   
//   *
//                                                                            
//   *
// *****************************************************************************
// ************************    FLAG FOR MISMATCH ************************************
// 
//  NOTE: 
//   1. Mismatch effect is included in this model. User can use mismatchflag to
//      turn on or turn off this effect.
// 
// **********************************************************************************
// **********************     FLAG FOR FLICKER NOISE CORNERS SIMULATION  ************
// 
//  NOTE:
//   1. Transistor
//      noiseflagn=0 for typical, noiseflagn=1 for worstcase, noiseflagn=-1 for 
//  best case
//      noiseflagp=0 for typical, noiseflagp=1 for worstcase, noiseflagp=-1 for 
//  best case
//   2. Resistor
//      rnoiseflag=0 for typical, rnoiseflag=1 for worstcase, rnoiseflag=-1 for 
//  best case
// 
// **********************************************************************************
// **********************    VBD REVERSE BIAS RANGE FOR 5V SVT DEVICE  ***************
// 
// NOTE:
//   1. The VBD Reverse Bias range for 5V N/PMOS transistors should be < N+/PW 
//  & P+/NW BV value ~ 8V.
// 
// *****************************************************************************
//                                                                            
//   *
//  1)To use these models directly by programming in this style:              
//   *
//                                                                            
//   *
//      .lib 'cmn018_gp2a_5v_v1d4.scs' model_name                               
//   *
//                                                                            
//   *
//                                                                            
//   *
//     EX: .lib 'cmn018_gp2a_5v_v1d4.scs' TT                                    
//   *
//         for typical 1.8V N,PMOS                                            
//   *
//         .lib 'cmn018_gp2a_5v_v1d4.scs' TT_5                                  
//   *
//         for typical 5V N,PMOS                                              
//   *
//   note:                                                                    
//   *
//       corner_name                                                          
//   *
//        TT : typical model for 1.8V devices                                 
//   *
//        SS : Slow NMOS Slow PMOS model for 1.8V devices                     
//   *
//        FF : Fast NMOS Fast PMOS model for 1.8V devices                     
//   *
//        SF : Slow NMOS Fast PMOS model for 1.8V devices                     
//   *
//        FS : Fast NMOS Slow PMOS model for 1.8V devices                     
//   *
//                                                                            
//   *
//        TT_5 : typical model for 5V devices                                 
//   *
//        SS_5 : Slow NMOS Slow PMOS model for 5V devices                     
//   *
//        FF_5 : Fast NMOS Fast PMOS model for 5V devices                     
//   *
//        SF_5 : Slow NMOS Fast PMOS model for 5V devices                     
//   *
//        FS_5 : Fast NMOS Slow PMOS model for 5V devices                     
//   *
//                                                                            
//   *
//        TT_M : typical model for 1.8V devices                               
//   *
//        SS_M : Slow NMOS Slow PMOS model for 1.8V medium vt devices         
//   *
//        FF_M : Fast NMOS Fast PMOS model for 1.8V medium vt devices         
//   *
//        SF_M : Slow NMOS Fast PMOS model for 1.8V medium vt devices         
//   *
//        FS_M : Fast NMOS Slow PMOS model for 1.8V medium vt devices         
//   *
//                                                                            
//   *
//        TT_NA : typical model for 1.8V native NMOS                          
//   *
//        SS_NA : Slow NMOS for 1.8V native NMOS                              
//   *
//        FF_NA : Fast NMOS for 1.8V native NMOS                              
//   *
//        SF_NA : Slow NMOS for 1.8V native NMOS                              
//   *
//        FS_NA : Fast NMOS for 1.8V native NMOS                              
//   *
//                                                                            
//   *
//        TT_5VNA : typical model for 5V native NMOS                          
//   *
//        SS_5VNA : Slow NMOS for 5V native NMOS                              
//   *
//        FF_5VNA : Fast NMOS for 5V native NMOS                              
//   *
//        SF_5VNA : Slow NMOS for 5V native NMOS                              
//   *
//        FS_5VNA : Fast NMOS for 5V native NMOS                              
//   *
//                                                                            
//   *
//                                                                            
//   *
//  2)HDIF depends on your layout poly spacer to contact center distance.     
//   *
//    The value listed here is TSMC minimum-rule value. You can change it     
//   *
//    according to your layout.                                               
//   *
//                                                                            
//   *
// ***************************************************************************** 
//  
// *********************************************************************************** 
//     
// *********************** Statistical Model Usage ***********************************
// 
//  Monte Carlo simulation can be done by setting "MONTE=val" in netlist. 